LTspice 24.0.9 for Windows
Circuit: * C:\Users\nicla\Documents\GitHub\esd6_project\ltspice_sim\output_stage\Draft1.asc
Start Time: Wed Mar 12 14:44:50 2025
solver = Normal
Maximum thread count: 16
tnom = 27
temp = 27
method = modified trap
.OP point found by inspection.
Total elapsed time: 0.167 seconds.

