LTspice 24.0.9 for Windows
Circuit: * C:\Users\nicla\Documents\GitHub\esd6_project\ltspice_sim\powersupply\Draft2.asc
Start Time: Fri Apr 25 15:47:48 2025
Error on line 3 : v1 5+ 0 v
	 Unknown parameter "v"
Error on line 4 : v2 0 5- v
	 Unknown parameter "v"
solver = Normal
Maximum thread count: 16
tnom = 27
temp = 27
method = modified trap
WARNING: Node N004 is floating.

WARNING: Less than two connections to node n004.  This node is used by c2.
v1: Missing value, assumed 0V @ DC
v2: Missing value, assumed 0V @ DC
Direct Newton iteration for .op point succeeded.
Total elapsed time: 0.041 seconds.

