LTspice 24.0.9 for Windows
Circuit: * C:\Users\nicla\Documents\GitHub\esd6_project\ltspice_sim\powersupply\powersupply.asc
Start Time: Fri Mar 14 11:12:11 2025
solver = Normal
Maximum thread count: 16
tnom = 27
temp = 27
method = modified trap
.OP point found by inspection.
Total elapsed time: 0.077 seconds.

